# Packages
 &PACKAGES
 useCAL         = .TRUE.,
 useEXF         = .TRUE.,
 useSEAICE      = .TRUE.,
 useTIDES       = .TRUE.,
 useSAL         = .TRUE.,
 useShelfIce    = .TRUE.,
 useSALT_PLUME  = .TRUE.,
 useGMRedi      = .TRUE.,
 useGGL90       =.TRUE.,
 useDiagnostics =.TRUE.,
 /
